*Heading
** Job name: Job-1 Model name: Model-1
** Generated by: Abaqus/CAE 2017
*Preprint, echo=NO, model=NO, history=NO, contact=NO
**
** PARTS
**
*Part, name=ASTME8-04
*Node
      1, 0.0200570598, 0.00396505604
      2, 0.0200202074, 0.00402020803
      3, 0.0199650563, 0.00405705953
      4, 0.0198999997, 0.00406999979
      5, 0.0198349431, 0.00405705953
      6, 0.0197797921, 0.00402020803
      7, 0.0197429396, 0.00396505604
      8, 0.0197299998, 0.00389999989
      9, 0.0197429396, 0.00383494375
     10, 0.0197797921, 0.00377979176
     11, 0.0198055524, 0.00375865027
     12, 0.0198349431, 0.00374294049
     13, 0.0198999997,      0.00373
     14, 0.0199650563, 0.00374294049
     15, 0.0200202074, 0.00377979176
     16, 0.0200570598, 0.00383494375
     17, 0.0200699996, 0.00389999989
     18, 0.00423259661, 0.000937766046
     19, 0.00415455829, 0.00105455844
     20, 0.00403776625, 0.00113259663
** ... 14133 like lines cut
*Element, type=CPS3
  1,  7528,  1643,  6494
  2,  1905,  3667,  4919
  3, 12104,  3653,  4908
  4,  3465,    38,    37
  5,  3863,  1576,  3837
  6,  5246,  1021,  3826
  7, 12485,  3559,  3557
  8, 12592,  2471,  1467
  9, 12188, 12190,  1440
 10,  2461,  2142,  2141
 11,   120,  2182,   121
 12,  2068,  2109,  4253
 13,  9347,  9383,  8788
 14,  5305, 12310,  4094
 15, 12723, 12419,  2552
 16,  5508,  6608,  4487
 17,  6387,  4464,  5630
 18, 12373,  3943,  3982
 19,  5243,  3990,  3932
 20,  3638,   203,   202
** ... 771 like lines cut
*Element, type=CPS4R
  792,  3498,    16,    15, 12023
  793,  3498, 12023,  4756,  5759
  794,  3807,  4830,   704,   703
  795,  3808,   703,   702, 12307
  796,  5091,  1695,  6976,  6029
  797,  3802,  3233,  3813,  5091
  798,  4101, 12174,  5422,  6394
  799,   498,   497,  2308,  5492
  800,  2308,   497,  4424,  5616
  801,  4424,   497,   496,  5487
  802,  4412,  5487,   496,   495
  803,  5486,   495,   494, 12466
  804,  5629,  4434,  6657,  7574
  805,  4434,  5629,  4430,  3214
  806, 10278,  9831, 10385, 10877
  807, 13750, 11286, 11537, 11000
  808,  9508, 13375,  9725, 13541
  809,  3688,  4942,  3682,   535
  810,  3688,   535,   534, 12128
  811,  4792,  3498,  5759, 12783
** ... 12933 like lines cut
*Nset, nset=Set-1, generate
     1,  14153,      1
*Elset, elset=Set-1, generate
     1,  13744,      1
** Section: Section-1
*Solid Section, elset=Set-1, material=Al6061T6
,
*End Part
**  
**
** ASSEMBLY
**
*Assembly, name=Assembly
**  
*Instance, name=ASTME8-04-01, part=ASTME8-04
*End Instance
**  
*Nset, nset=Edge-1, instance=ASTME8-04-01
 1511, 1599, 1600, 1601, 1602, 1603, 1604, 1605, 1606, 1607, 1608, 1609, 1610
*Elset, elset=Edge-1, instance=ASTME8-04-01
 1273, 1274, 1279, 1280, 1290, 3406, 3407, 3408, 3409, 3410, 3557, 3558
*Nset, nset=Edge-2, instance=ASTME8-04-01
 1510, 1512, 1513, 1514, 1515, 1516, 1517, 1518, 1519, 1520, 1521, 1522, 1523
*Elset, elset=Edge-2, instance=ASTME8-04-01
   71,  160,  162,  573, 1300, 1301, 1335, 1337, 2696, 2697, 3184, 3488
*End Assembly
** 
** MATERIALS
** 
*Material, name=Al6061T6
*Density
2700.,
*Elastic
 6.89e+10, 0.35
** ----------------------------------------------------------------
** 
** STEP: Step-1
** 
*Step, name=Step-1, nlgeom=NO
*Static
1., 1., 1e-05, 1.
** 
** BOUNDARY CONDITIONS
** 
** Name: BC1 Type: Symmetry/Antisymmetry/Encastre
*Boundary
Edge-1, ENCASTRE
** Name: BC2 Type: Displacement/Rotation
*Boundary
Edge-2, 1, 1, 0.0001
** 
** OUTPUT REQUESTS
** 
*Restart, write, frequency=0
** 
** FIELD OUTPUT: F-Output-1
** 
*Output, field, variable=PRESELECT
** 
** HISTORY OUTPUT: H-Output-1
** 
*Output, history, variable=PRESELECT
*End Step
