*Heading
** Job name: Job-1 Model name: Model-1
** Generated by: Abaqus/CAE 2017
*Preprint, echo=NO, model=NO, history=NO, contact=NO
**
** PARTS
**
*Part, name=ASTME8-04
*Node
      1, 0.0366847776, 0.00047653669
      2, 0.0366414227, 0.000541421352
      3, 0.0365765356, 0.000584775931
      4, 0.0364999995, 0.000600000028
      5, 0.0364234634, 0.000584775931
      6, 0.0363888852, 0.000566293951
      7,   0.03635858, 0.000541421352
      8, 0.0363152251, 0.00047653669
      9, 0.0362999998, 0.00039999999
     10, 0.0363152251, 0.000323463319
     11,   0.03635858, 0.000258578657
     12, 0.0364234634, 0.000215224092
     13, 0.0364999995, 0.000199999995
     14, 0.0365765356, 0.000215224092
     15, 0.0366414227, 0.000258578657
     16, 0.0366847776, 0.000323463319
     17, 0.0366999991, 0.00039999999
     18, 0.0151695516, 0.0013530734
     19, 0.0149530731, 0.00156955176
     20,       0.0148, 0.00159999996
** ... 14136 like lines cut
*Element, type=CPS3
  1, 12552, 12274, 12479
  2,  4632, 12272,  3625
  3,  1685,  1689,  3868
  4, 12296,  6573,  1607
  5, 12297,  3675, 12530
  6,  8228,  5953,  6982
  7,  4618,  1447,  1446
  8,  1460,  3541,  5869
  9,  6096,  3481,  4698
 10,  5645, 12157,  4315
 11,  5603,  3769,  3767
 12,  4715,  4698,  3485
 13,  2869,  4395,  5703
 14, 12690,  5692,  2088
 15,    78, 12365,    79
 16, 12365,    78,  1608
 17,  3991,  3960,  3985
 18,  2106,  3248,  1734
 19,  5617,  4305,  5440
 20, 12703,  1800, 12867
** ... 728 like lines cut
*Element, type=CPS4R
  749,  3881,  1684,    16,    15
  750,  3881,    15,    14,  1429
  751,  1429,  1428,  1684,  3881
  752,  1684,  1428,  1685,  3868
  753,  1685,  1428,  1427,  1686
  754,  1504,  1516,  1686,  1427
  755,  1687, 12818,  7773,  1688
  756,  3232,  3231,  3217,  7916
  757,  3216,  6659,  3139,  5706
  758,  4322,  5240,  3300,   619
  759,  4437, 12424,  1316,  4415
  760,  2345,   619,   618,  4324
  761,   617,  2346,  4324,   618
  762,  5746,  4318,  1966,  6785
  763,  1967,   616,   615,  4615
  764,   615,   614,  1968,  4615
  765,  4272,  3298,  4421,  1969
  766,  5719,  4421, 12423, 12811
  767,   623,  3138,  5482,   624
  768,  4439,   622,   621,  1315
** ... 12955 like lines cut
*Nset, nset=Set-1, generate
     1,  14156,      1
*Elset, elset=Set-1, generate
     1,  13723,      1
** Section: Section-1
*Solid Section, elset=Set-1, material=Al6061T6
,
*End Part
**  
**
** ASSEMBLY
**
*Assembly, name=Assembly
**  
*Instance, name=ASTME8-04-01, part=ASTME8-04
*End Instance
**  
*Nset, nset=Edge-1, instance=ASTME8-04-01
 1505, 1593, 1594, 1595, 1596, 1597, 1598, 1599, 1600, 1601, 1602, 1603, 1604, 1605
*Elset, elset=Edge-1, instance=ASTME8-04-01
   96, 1727, 1728, 1780, 2415, 2431, 2448, 2456, 2471, 3330, 3332, 3360, 3361
*Nset, nset=Edge-2, instance=ASTME8-04-01
 1504, 1506, 1507, 1508, 1509, 1510, 1511, 1512, 1513, 1514, 1515, 1516, 1517
*Elset, elset=Edge-2, instance=ASTME8-04-01
  754, 2264, 2266, 2279, 2280, 3451, 3453, 3455, 3460, 3462, 3464, 3467
*End Assembly
** 
** MATERIALS
** 
*Material, name=Al6061T6
*Density
2700.,
*Elastic
 6.89e+10, 0.35
** ----------------------------------------------------------------
** 
** STEP: Step-1
** 
*Step, name=Step-1, nlgeom=NO
*Static
1., 1., 1e-05, 1.
** 
** BOUNDARY CONDITIONS
** 
** Name: BC1 Type: Symmetry/Antisymmetry/Encastre
*Boundary
Edge-1, ENCASTRE
** Name: BC2 Type: Displacement/Rotation
*Boundary
Edge-2, 1, 1, 0.0001
** 
** OUTPUT REQUESTS
** 
*Restart, write, frequency=0
** 
** FIELD OUTPUT: F-Output-1
** 
*Output, field, variable=PRESELECT
** 
** HISTORY OUTPUT: H-Output-1
** 
*Output, history, variable=PRESELECT
*End Step
